11
3
U 0.11394 1.44719 -1.07475
U 1.77072 -0.322798 -1.67506
U 1.47573 -0.464521 1.36349
O 0.896077 -0.0776434 -0.151491
O -0.302997 -0.0416615 -1.68935
O 2.20784 1.12571 -0.883106
O 0.884538 2.08751 -0.183148
O 0.980737 2.16913 -1.38833
O -0.872175 0.991059 0.861685
O 0.388604 -0.761552 -1.39664
O 1.59024 0.901351 1.3819
