11
1
U -0.95318 -0.83539 -2.11329
U 0.372114 -1.69116 -1.70317
U -0.901591 -1.84246 -1.1063
O -0.589911 -1.31652 0.846628
O -1.56856 0.696673 0.0290416
O -1.84394 -2.00105 0.551636
O -0.513214 1.97172 1.51691
O -0.43019 -1.22574 -0.40661
O -1.98778 -0.896274 0.358413
O 1.56121 0.583907 -0.0610886
O 0.773509 2.08913 -0.308062
