11
2
U -0.25334 -1.76985 0.539314
U -1.92039 0.90116 -1.7169
U -0.36202 1.46692 1.38502
O 0.605644 -1.38288 -2.0102
O 1.20721 0.801017 0.468359
O -0.685434 -2.15353 -1.3252
O 0.451368 0.711531 1.44618
O -1.88619 1.35828 0.52952
O 0.6028 -0.362863 -0.572269
O -0.0471692 2.12917 -0.12004
O -1.862 -0.786782 -0.138873
